Circuit: * C:\Users\Y\Desktop\LtSpice\capteur.asc

Direct Newton iteration for .op point succeeded.

Date: Sat Apr 15 00:56:37 2023
Total elapsed time: 0.096 seconds.

tnom = 27
temp = 27
method = trap
totiter = 22
traniter = 0
tranpoints = 0
accept = 0
rejected = 0
matrix size = 14
fillins = 5
solver = Normal
Avg thread counts: 12.0/0.0/12.0/1.2
Matrix Compiler1:      38 opcodes
Matrix Compiler2: 1.18 KB object code size
