Circuit: * C:\Users\Y\Desktop\LtSpice\LTspice\Circuit avec capteur.asc

Direct Newton iteration for .op point succeeded.

Date: Sat Apr 15 10:21:42 2023
Total elapsed time: 0.074 seconds.

tnom = 27
temp = 27
method = trap
totiter = 22
traniter = 0
tranpoints = 0
accept = 0
rejected = 0
matrix size = 16
fillins = 5
solver = Normal
Avg thread counts: 12.0/0.0/12.0/2.0
Matrix Compiler1:      42 opcodes
Matrix Compiler2: 1.30 KB object code size
