Circuit: * C:\Users\Y\Desktop\LtSpice\test.asc

WARNING: Specified period is not longer than the sum of Trise, Tfall, and Ton for v1.  Increasing period to 1.2e-05
.OP point found by inspection.

Date: Sat Apr 15 00:08:37 2023
Total elapsed time: 0.034 seconds.

tnom = 27
temp = 27
method = trap
totiter = 0
traniter = 0
tranpoints = 0
accept = 0
rejected = 0
matrix size = 3
fillins = 0
solver = Normal
Avg thread counts: 12.0/0.0/0.0/2.2
Matrix Compiler1:       4 opcodes
Matrix Compiler2:      15 opcodes
